<?xml version="1.0" encoding="UTF-8"?>
<!-- 电子卡扫描消费流程 -->
<flow-diagram version="1.0" begin-node="scanCard">
       <!-- 扫描优惠劵 -->
    <flow-node node-name ="scanCard"  ref-activity="me.andpay.apos.common.activity.AposQRActivity">
         <node-complete  identity = "success"   sub-flow="com_txn_flow"  sub-finish-cpl="txnfinish" />
         <node-complete-txnfinish identity = "success"  ref-activity="me.andpay.apos.common.activity.HomePageActivity"  flush-context = "true" finish-flow = "true"/>
    <!-- <node-complete-txnfinish identity = "success"   next-node="txnDetail" transfer="Tam.TxnFlow.DetailContextTransfer"  /> -->  
    </flow-node>
   	<!-- 交易明细 -->   
	<!--  <flow-node node-name ="txnDetail" ref-activity="me.andpay.apos.tam.activity.TxnDetailActivity">
         <node-complete  identity = "finish" ref-activity="me.andpay.apos.common.activity.HomePageActivity"  flush-context = "true" finish-flow = "true"/>
    </flow-node> -->
</flow-diagram>